New England/PSSE Cases/Easy/Winter12Generous.RAW
 0,    100.00, 33, 0, 0, 60.00       / August 22, 2017 09:54:02; Simulator Version 19; BuildDate 2016_7_14


    1,'1           ', 345.0000,2,   1,   1,   1,1.03188, -20.9902, 1.10000, 0.98000, 1.10000, 0.98000
    2,'2           ', 345.0000,1,   1,   1,   1,1.02853, -21.2213, 1.06000, 0.92000, 1.06000, 0.92000
    3,'3           ', 138.0000,2,   1,   1,   1,1.02000, -11.0334, 1.10000, 0.98000, 1.10000, 0.98000
    4,'4           ', 138.0000,1,   1,   1,   1,0.98834, -22.0474, 1.06000, 0.92000, 1.06000, 0.92000
    5,'5           ', 230.0000,1,   1,   1,   1,0.99219, -19.6770, 1.06000, 0.92000, 1.06000, 0.92000
    6,'6           ', 138.0000,1,   1,   1,   1,1.01429,  -9.9319, 1.06000, 0.92000, 1.06000, 0.92000
    7,'7           ', 138.0000,2,   1,   1,   1,1.02000, -19.0501, 1.10000, 0.98000, 1.10000, 0.98000
    8,'8           ', 230.0000,2,   1,   1,   1,1.02000, -17.3703, 1.10000, 0.98000, 1.10000, 0.98000
    9,'9           ', 345.0000,1,   1,   1,   1,1.03110, -18.6627, 1.06000, 0.92000, 1.06000, 0.92000
   10,'10          ', 138.0000,3,   1,   1,   1,1.02000,   0.0000, 1.10000, 0.98000, 1.10000, 0.98000
   11,'11          ', 138.0000,1,   1,   1,   1,1.01766,  -1.0159, 1.06000, 0.92000, 1.06000, 0.92000
   12,'12          ', 138.0000,1,   1,   1,   1,1.01725,  -1.8290, 1.06000, 0.92000, 1.06000, 0.92000
   13,'13          ', 345.0000,1,   1,   1,   1,1.01788,  -3.9332, 1.06000, 0.92000, 1.06000, 0.92000
   14,'14          ', 230.0000,1,   1,   1,   1,1.01824, -10.4675, 1.06000, 0.92000, 1.06000, 0.92000
   15,'15          ', 230.0000,1,   1,   1,   1,1.01096, -14.1707, 1.06000, 0.92000, 1.06000, 0.92000
   16,'16          ', 138.0000,1,   1,   1,   1,1.00816, -17.0557, 1.06000, 0.92000, 1.06000, 0.92000
   17,'17          ', 138.0000,1,   1,   1,   1,0.99069, -19.3204, 1.06000, 0.92000, 1.06000, 0.92000
   18,'18          ', 138.0000,1,   1,   1,   1,0.98835, -18.6190, 1.06000, 0.92000, 1.06000, 0.92000
   19,'19          ', 138.0000,1,   1,   1,   1,0.99813, -16.9833, 1.06000, 0.92000, 1.06000, 0.92000
   20,'20          ',  69.0000,1,   1,   1,   1,1.00538, -14.5186, 1.06000, 0.92000, 1.06000, 0.92000
   21,'21          ', 138.0000,1,   1,   1,   1,0.99091, -19.7619, 1.06000, 0.92000, 1.06000, 0.92000
   22,'22          ', 230.0000,1,   1,   1,   1,1.00182,  -7.1003, 1.06000, 0.92000, 1.06000, 0.92000
   23,'23          ', 230.0000,1,   1,   1,   1,1.00330,  -9.0439, 1.06000, 0.92000, 1.06000, 0.92000
   24,'24          ', 230.0000,2,   1,   1,   1,1.02000, -11.8754, 1.10000, 0.98000, 1.10000, 0.98000
   25,'25          ', 230.0000,1,   1,   1,   1,1.00989, -21.1812, 1.06000, 0.92000, 1.06000, 0.92000
   26,'26          ', 345.0000,2,   1,   1,   1,1.02000, -30.6110, 1.10000, 0.98000, 1.10000, 0.98000
   27,'27          ', 230.0000,1,   1,   1,   1,0.99876, -28.5393, 1.06000, 0.92000, 1.06000, 0.92000
   28,'28          ', 138.0000,2,   1,   1,   1,1.02000, -24.7451, 1.10000, 0.98000, 1.10000, 0.98000
   29,'29          ', 138.0000,1,   1,   1,   1,1.01636, -22.7113, 1.06000, 0.92000, 1.06000, 0.92000
   30,'30          ',  14.0000,2,   1,   1,   1,1.02000, -19.7047, 1.10000, 0.98000, 1.10000, 0.98000
   31,'31          ',  14.0000,2,   1,   1,   1,1.02000,  -5.8333, 1.10000, 0.98000, 1.10000, 0.98000
   32,'32          ',  14.0000,2,   1,   1,   1,1.02000,   2.2039, 1.10000, 0.98000, 1.10000, 0.98000
   33,'33          ',  14.0000,2,   1,   1,   1,1.02000, -14.1884, 1.10000, 0.98000, 1.10000, 0.98000
   34,'34          ',  14.0000,2,   1,   1,   1,1.02000, -11.5656, 1.10000, 0.98000, 1.10000, 0.98000
   35,'35          ',  14.0000,2,   1,   1,   1,1.02000,   2.0308, 1.10000, 0.98000, 1.10000, 0.98000
   36,'36          ',  14.0000,2,   1,   1,   1,1.02000,  -6.4442, 1.10000, 0.98000, 1.10000, 0.98000
   37,'37          ',  14.0000,2,   1,   1,   1,1.02000, -19.6116, 1.10000, 0.98000, 1.10000, 0.98000
   38,'38          ',  14.0000,2,   1,   1,   1,1.02000, -20.5167, 1.10000, 0.98000, 1.10000, 0.98000
   39,'39          ', 345.0000,1,   1,   1,   1,1.02055, -28.0209, 1.06000, 0.92000, 1.06000, 0.92000
   40,'40          ', 345.0000,1,   1,   1,   1,1.01215, -31.8181, 1.06000, 0.92000, 1.06000, 0.92000
   41,'41          ', 345.0000,1,   1,   1,   1,1.00221, -28.0535, 1.06000, 0.92000, 1.06000, 0.92000
   42,'42          ', 345.0000,1,   1,   1,   1,1.02238, -33.3820, 1.06000, 0.92000, 1.06000, 0.92000
   43,'43          ', 345.0000,1,   1,   1,   1,1.01720, -30.8559, 1.06000, 0.92000, 1.06000, 0.92000
   44,'44          ', 230.0000,1,   1,   1,   1,1.01086, -20.5257, 1.06000, 0.92000, 1.06000, 0.92000
   45,'45          ', 345.0000,1,   1,   1,   1,1.01666, -20.2979, 1.06000, 0.92000, 1.06000, 0.92000
   46,'46          ', 138.0000,1,   1,   1,   1,0.97397, -22.1171, 1.06000, 0.92000, 1.06000, 0.92000
   47,'47          ', 138.0000,1,   1,   1,   1,0.94260, -25.0913, 1.06000, 0.92000, 1.06000, 0.92000
   48,'48          ', 345.0000,1,   1,   1,   1,0.98845, -22.5001, 1.06000, 0.92000, 1.06000, 0.92000
   49,'49          ', 138.0000,2,   1,   1,   1,1.02000, -16.8434, 1.10000, 0.98000, 1.10000, 0.98000
   50,'50          ', 138.0000,1,   1,   1,   1,0.99129, -21.2791, 1.06000, 0.92000, 1.06000, 0.92000
   51,'51          ', 138.0000,1,   1,   1,   1,1.01179, -24.8724, 1.06000, 0.92000, 1.06000, 0.92000
   52,'52          ', 345.0000,2,   1,   1,   1,1.02000, -20.0821, 1.10000, 0.98000, 1.10000, 0.98000
   53,'53          ', 138.0000,1,   1,   1,   1,0.99507, -24.0393, 1.06000, 0.92000, 1.06000, 0.92000
   54,'54          ', 230.0000,2,   1,   1,   1,1.02000, -16.8300, 1.10000, 0.98000, 1.10000, 0.98000
   55,'55          ', 230.0000,1,   1,   1,   1,1.00954, -19.8922, 1.06000, 0.92000, 1.06000, 0.92000
   56,'56          ', 345.0000,2,   1,   1,   1,1.02000, -10.4194, 1.10000, 0.98000, 1.10000, 0.98000
   57,'57          ', 138.0000,1,   1,   1,   1,0.96686, -23.7939, 1.06000, 0.92000, 1.06000, 0.92000
   58,'58          ', 345.0000,1,   1,   1,   1,1.00561, -11.3449, 1.06000, 0.92000, 1.06000, 0.92000
   59,'59          ', 345.0000,1,   1,   1,   1,1.01536, -13.4142, 1.06000, 0.92000, 1.06000, 0.92000
   60,'60          ', 138.0000,1,   1,   1,   1,0.96593, -22.0207, 1.06000, 0.92000, 1.06000, 0.92000
   61,'61          ', 230.0000,1,   1,   1,   1,1.01491, -15.7777, 1.06000, 0.92000, 1.06000, 0.92000
   62,'62          ', 345.0000,1,   1,   1,   1,1.00079, -12.1145, 1.06000, 0.92000, 1.06000, 0.92000
   63,'63          ', 138.0000,1,   1,   1,   1,0.95911, -23.5314, 1.06000, 0.92000, 1.06000, 0.92000
   64,'64          ', 138.0000,1,   1,   1,   1,0.97798, -17.1609, 1.06000, 0.92000, 1.06000, 0.92000
   65,'65          ', 138.0000,1,   1,   1,   1,1.00178, -19.6979, 1.06000, 0.92000, 1.06000, 0.92000
   66,'66          ', 345.0000,1,   1,   1,   1,1.00800, -11.1261, 1.06000, 0.92000, 1.06000, 0.92000
   67,'67          ', 138.0000,1,   1,   1,   1,0.99440, -24.8741, 1.06000, 0.92000, 1.06000, 0.92000
   68,'68          ', 138.0000,1,   1,   1,   1,1.00312, -23.6166, 1.06000, 0.92000, 1.06000, 0.92000
   69,'69          ', 345.0000,2,   1,   1,   1,1.02000,  -4.0378, 1.10000, 0.98000, 1.10000, 0.98000
   70,'70          ', 138.0000,1,   1,   1,   1,1.01257,  -5.9475, 1.06000, 0.92000, 1.06000, 0.92000
   71,'71          ', 345.0000,1,   1,   1,   1,1.01260, -10.5961, 1.06000, 0.92000, 1.06000, 0.92000
   72,'72          ', 138.0000,2,   1,   1,   1,1.01576, -24.8156, 1.10000, 0.98000, 1.10000, 0.98000
   73,'73          ', 138.0000,1,   1,   1,   1,1.01221, -24.8798, 1.06000, 0.92000, 1.06000, 0.92000
   74,'74          ', 345.0000,1,   1,   1,   1,1.00059, -20.3427, 1.06000, 0.92000, 1.06000, 0.92000
   75,'75          ', 138.0000,1,   1,   1,   1,0.98041, -22.3859, 1.06000, 0.92000, 1.06000, 0.92000
   76,'76          ', 345.0000,2,   1,   1,   1,1.02000,  -9.6779, 1.10000, 0.98000, 1.10000, 0.98000
   77,'77          ', 138.0000,1,   1,   1,   1,0.99832, -28.2057, 1.06000, 0.92000, 1.06000, 0.92000
   78,'78          ', 345.0000,2,   1,   1,   1,1.02000, -34.2225, 1.10000, 0.98000, 1.10000, 0.98000
   79,'79          ', 345.0000,1,   1,   1,   1,1.04227, -41.2675, 1.06000, 0.92000, 1.06000, 0.92000
   80,'80          ', 345.0000,2,   1,   1,   1,1.02000, -36.9957, 1.10000, 0.98000, 1.10000, 0.98000
   81,'81          ', 345.0000,1,   1,   1,   1,1.01773, -35.2683, 1.06000, 0.92000, 1.06000, 0.92000
   82,'82          ', 345.0000,2,   1,   1,   1,1.02000, -29.9008, 1.10000, 0.98000, 1.10000, 0.98000
   83,'83          ', 345.0000,1,   1,   1,   1,1.02269, -28.8940, 1.06000, 0.92000, 1.06000, 0.92000
   84,'84          ', 138.0000,2,   1,   1,   1,1.02000, -25.8273, 1.10000, 0.98000, 1.10000, 0.98000
   85,'85          ', 230.0000,1,   1,   1,   1,0.99928, -27.5662, 1.06000, 0.92000, 1.06000, 0.92000
   86,'86          ', 138.0000,1,   1,   1,   1,0.99235, -26.9403, 1.06000, 0.92000, 1.06000, 0.92000
   87,'87          ', 345.0000,1,   1,   1,   1,1.04910, -41.4019, 1.06000, 0.92000, 1.06000, 0.92000
   88,'88          ', 138.0000,1,   1,   1,   1,1.01273, -25.7607, 1.06000, 0.92000, 1.06000, 0.92000
   89,'89          ', 138.0000,1,   1,   1,   1,0.95974, -32.1630, 1.06000, 0.92000, 1.06000, 0.92000
   90,'90          ', 230.0000,1,   1,   1,   1,0.99467,  -9.7032, 1.06000, 0.92000, 1.06000, 0.92000
   91,'91          ', 230.0000,1,   1,   1,   1,0.98459, -11.3817, 1.06000, 0.92000, 1.06000, 0.92000
   92,'92          ', 345.0000,1,   1,   1,   1,0.99260, -11.6892, 1.06000, 0.92000, 1.06000, 0.92000
   93,'93          ', 345.0000,1,   1,   1,   1,0.99461, -12.9155, 1.06000, 0.92000, 1.06000, 0.92000
   94,'94          ', 138.0000,1,   1,   1,   1,0.99812, -18.7093, 1.06000, 0.92000, 1.06000, 0.92000
   95,'95          ', 138.0000,1,   1,   1,   1,0.98954, -18.1767, 1.06000, 0.92000, 1.06000, 0.92000
   96,'96          ', 138.0000,1,   1,   1,   1,0.98980, -17.7517, 1.06000, 0.92000, 1.06000, 0.92000
   97,'97          ', 345.0000,1,   1,   1,   1,1.00115, -15.1424, 1.06000, 0.92000, 1.06000, 0.92000
   98,'98          ', 345.0000,1,   1,   1,   1,1.01677, -15.3741, 1.06000, 0.92000, 1.06000, 0.92000
   99,'99          ', 345.0000,1,   1,   1,   1,0.99452, -16.6266, 1.06000, 0.92000, 1.06000, 0.92000
  100,'100         ', 138.0000,1,   1,   1,   1,0.98896,  -8.7537, 1.06000, 0.92000, 1.06000, 0.92000
  101,'101         ', 345.0000,1,   1,   1,   1,0.99200, -13.2539, 1.06000, 0.92000, 1.06000, 0.92000
  102,'102         ', 138.0000,1,   1,   1,   1,0.98835, -19.3130, 1.06000, 0.92000, 1.06000, 0.92000
  103,'103         ', 138.0000,2,   1,   1,   1,1.02000, -16.8397, 1.10000, 0.98000, 1.10000, 0.98000
  104,'104         ', 138.0000,1,   1,   1,   1,0.98153, -19.6833, 1.06000, 0.92000, 1.06000, 0.92000
  105,'105         ', 138.0000,1,   1,   1,   1,0.99074, -18.3399, 1.06000, 0.92000, 1.06000, 0.92000
  106,'106         ', 138.0000,1,   1,   1,   1,0.98578, -20.4731, 1.06000, 0.92000, 1.06000, 0.92000
  107,'107         ', 138.0000,1,   1,   1,   1,0.98644, -19.9836, 1.06000, 0.92000, 1.06000, 0.92000
  108,'108         ', 230.0000,1,   1,   1,   1,0.98382, -19.7845, 1.06000, 0.92000, 1.06000, 0.92000
  109,'109         ', 138.0000,1,   1,   1,   1,0.98866, -21.8299, 1.06000, 0.92000, 1.06000, 0.92000
  110,'110         ', 138.0000,1,   1,   1,   1,0.99172, -17.6433, 1.06000, 0.92000, 1.06000, 0.92000
  111,'111         ', 345.0000,1,   1,   1,   1,0.99523, -17.8977, 1.06000, 0.92000, 1.06000, 0.92000
  112,'112         ', 138.0000,1,   1,   1,   1,0.97120, -22.2134, 1.06000, 0.92000, 1.06000, 0.92000
  113,'113         ', 138.0000,1,   1,   1,   1,0.96267, -23.0458, 1.06000, 0.92000, 1.06000, 0.92000
  114,'114         ', 138.0000,1,   1,   1,   1,0.98736, -19.0763, 1.06000, 0.92000, 1.06000, 0.92000
  115,'115         ', 345.0000,1,   1,   1,   1,0.99568, -11.2586, 1.06000, 0.92000, 1.06000, 0.92000
  116,'116         ', 230.0000,1,   1,   1,   1,1.00854, -19.8644, 1.06000, 0.92000, 1.06000, 0.92000
  117,'117         ', 138.0000,1,   1,   1,   1,0.99788, -20.5789, 1.06000, 0.92000, 1.06000, 0.92000
  118,'118         ', 138.0000,1,   1,   1,   1,0.99001, -18.8504, 1.06000, 0.92000, 1.06000, 0.92000
  119,'119         ', 138.0000,1,   1,   1,   1,0.98742, -19.6079, 1.06000, 0.92000, 1.06000, 0.92000
  120,'120         ', 230.0000,2,   1,   1,   1,1.02000, -19.7613, 1.10000, 0.98000, 1.10000, 0.98000
  121,'121         ', 230.0000,1,   1,   1,   1,1.01560, -20.1995, 1.06000, 0.92000, 1.06000, 0.92000
  122,'122         ', 138.0000,1,   1,   1,   1,0.98556, -22.0600, 1.06000, 0.92000, 1.06000, 0.92000
  123,'123         ', 230.0000,1,   1,   1,   1,1.00978, -19.1434, 1.06000, 0.92000, 1.06000, 0.92000
  124,'124         ', 230.0000,1,   1,   1,   1,0.98143, -23.1707, 1.06000, 0.92000, 1.06000, 0.92000
  125,'125         ', 138.0000,1,   1,   1,   1,0.98431, -21.1909, 1.06000, 0.92000, 1.06000, 0.92000
  126,'126         ', 230.0000,1,   1,   1,   1,0.99331, -22.2568, 1.06000, 0.92000, 1.06000, 0.92000
  127,'127         ', 230.0000,1,   1,   1,   1,0.98812, -22.8714, 1.06000, 0.92000, 1.06000, 0.92000
  128,'128         ', 138.0000,2,   1,   1,   1,1.02000, -14.1602, 1.10000, 0.98000, 1.10000, 0.98000
  129,'129         ', 138.0000,1,   1,   1,   1,0.97924, -21.2461, 1.06000, 0.92000, 1.06000, 0.92000
  130,'130         ', 138.0000,2,   1,   1,   1,1.02000, -16.5920, 1.10000, 0.98000, 1.10000, 0.98000
  131,'131         ', 138.0000,1,   1,   1,   1,0.97373, -22.2100, 1.06000, 0.92000, 1.06000, 0.92000
  132,'132         ', 230.0000,1,   1,   1,   1,0.99466, -20.7983, 1.06000, 0.92000, 1.06000, 0.92000
  133,'133         ', 230.0000,1,   1,   1,   1,0.99397, -21.7294, 1.06000, 0.92000, 1.06000, 0.92000
  134,'134         ', 230.0000,1,   1,   1,   1,0.99004, -20.6952, 1.06000, 0.92000, 1.06000, 0.92000
  135,'135         ', 345.0000,1,   1,   1,   1,1.00907, -17.8172, 1.06000, 0.92000, 1.06000, 0.92000
  136,'136         ', 138.0000,1,   1,   1,   1,0.98453, -19.3262, 1.06000, 0.92000, 1.06000, 0.92000
  137,'137         ', 345.0000,1,   1,   1,   1,1.01571, -16.8664, 1.06000, 0.92000, 1.06000, 0.92000
  138,'138         ', 345.0000,1,   1,   1,   1,0.99359, -17.0680, 1.06000, 0.92000, 1.06000, 0.92000
  139,'139         ', 345.0000,1,   1,   1,   1,1.02243, -22.3263, 1.06000, 0.92000, 1.06000, 0.92000
  140,'140         ', 138.0000,1,   1,   1,   1,0.99869,  -7.4244, 1.06000, 0.92000, 1.06000, 0.92000
  141,'141         ', 345.0000,2,   1,   1,   1,1.02000,  -3.9010, 1.10000, 0.98000, 1.10000, 0.98000
  142,'142         ', 230.0000,1,   1,   1,   1,0.98473, -22.6645, 1.06000, 0.92000, 1.06000, 0.92000
  143,'143         ', 230.0000,2,   1,   1,   1,1.02000, -16.1074, 1.10000, 0.98000, 1.10000, 0.98000
  144,'144         ', 230.0000,1,   1,   1,   1,1.01248, -17.3067, 1.06000, 0.92000, 1.06000, 0.92000
  145,'145         ', 138.0000,1,   1,   1,   1,0.99428, -17.7628, 1.06000, 0.92000, 1.06000, 0.92000
  146,'146         ', 345.0000,2,   1,   1,   1,1.02000, -16.2087, 1.10000, 0.98000, 1.10000, 0.98000
  147,'147         ', 138.0000,1,   1,   1,   1,0.98326, -20.1217, 1.06000, 0.92000, 1.06000, 0.92000
  148,'148         ', 345.0000,1,   1,   1,   1,0.99529, -12.4054, 1.06000, 0.92000, 1.06000, 0.92000
  149,'149         ', 138.0000,2,   1,   1,   1,1.02000, -15.6122, 1.10000, 0.98000, 1.10000, 0.98000
  150,'150         ', 345.0000,1,   1,   1,   1,0.98123, -23.7529, 1.06000, 0.92000, 1.06000, 0.92000
  151,'151         ', 345.0000,1,   1,   1,   1,1.01708, -16.6823, 1.06000, 0.92000, 1.06000, 0.92000
  152,'152         ', 138.0000,1,   1,   1,   1,0.96874, -22.3273, 1.06000, 0.92000, 1.06000, 0.92000
  153,'153         ', 345.0000,1,   1,   1,   1,1.00597, -18.2412, 1.06000, 0.92000, 1.06000, 0.92000
  154,'154         ', 230.0000,1,   1,   1,   1,0.99383, -27.0030, 1.06000, 0.92000, 1.06000, 0.92000
  155,'155         ', 138.0000,1,   1,   1,   1,0.97530, -27.2596, 1.06000, 0.92000, 1.06000, 0.92000
  156,'156         ', 345.0000,1,   1,   1,   1,1.00821, -21.4708, 1.06000, 0.92000, 1.06000, 0.92000
  157,'157         ', 138.0000,2,   1,   1,   1,1.02000, -19.1149, 1.10000, 0.98000, 1.10000, 0.98000
  158,'158         ', 138.0000,1,   1,   1,   1,0.99052, -23.5411, 1.06000, 0.92000, 1.06000, 0.92000
  159,'159         ', 345.0000,1,   1,   1,   1,1.00841, -25.2751, 1.06000, 0.92000, 1.06000, 0.92000
  160,'160         ', 230.0000,1,   1,   1,   1,0.98128, -29.5422, 1.06000, 0.92000, 1.06000, 0.92000
  161,'161         ', 138.0000,1,   1,   1,   1,0.99711, -23.6983, 1.06000, 0.92000, 1.06000, 0.92000
  162,'162         ', 345.0000,2,   1,   1,   1,1.02000, -17.0606, 1.10000, 0.98000, 1.10000, 0.98000
  163,'163         ', 230.0000,1,   1,   1,   1,1.00839, -21.3598, 1.06000, 0.92000, 1.06000, 0.92000
  164,'164         ', 138.0000,1,   1,   1,   1,0.98790, -22.0784, 1.06000, 0.92000, 1.06000, 0.92000
  165,'165         ', 230.0000,2,   1,   1,   1,1.02000, -14.2945, 1.10000, 0.98000, 1.10000, 0.98000
  166,'166         ', 138.0000,2,   1,   1,   1,1.02000, -19.6543, 1.10000, 0.98000, 1.10000, 0.98000
  167,'167         ', 345.0000,1,   1,   1,   1,1.02624, -32.9975, 1.06000, 0.92000, 1.06000, 0.92000
  168,'168         ', 230.0000,1,   1,   1,   1,0.99418, -22.3682, 1.06000, 0.92000, 1.06000, 0.92000
  169,'169         ', 138.0000,1,   1,   1,   1,0.99700, -23.5880, 1.06000, 0.92000, 1.06000, 0.92000
  170,'170         ', 138.0000,1,   1,   1,   1,0.96708, -10.6761, 1.06000, 0.92000, 1.06000, 0.92000
  171,'171         ', 138.0000,1,   1,   1,   1,0.97384, -10.2483, 1.06000, 0.92000, 1.06000, 0.92000
  172,'172         ', 138.0000,1,   1,   1,   1,0.98653,  -7.8533, 1.06000, 0.92000, 1.06000, 0.92000
  173,'173         ', 138.0000,1,   1,   1,   1,0.98383,  -7.4299, 1.06000, 0.92000, 1.06000, 0.92000
  174,'174         ', 345.0000,1,   1,   1,   1,1.01490, -11.9493, 1.06000, 0.92000, 1.06000, 0.92000
  175,'175         ', 138.0000,2,   1,   1,   1,1.02000, -11.3956, 1.10000, 0.98000, 1.10000, 0.98000
  176,'176         ', 345.0000,2,   1,   1,   1,1.02000, -16.0935, 1.10000, 0.98000, 1.10000, 0.98000
  177,'177         ', 230.0000,1,   1,   1,   1,1.01233, -12.9221, 1.06000, 0.92000, 1.06000, 0.92000
  178,'178         ', 138.0000,1,   1,   1,   1,0.99948, -15.8049, 1.06000, 0.92000, 1.06000, 0.92000
  179,'179         ', 138.0000,1,   1,   1,   1,0.99866, -15.8625, 1.06000, 0.92000, 1.06000, 0.92000
  180,'180         ', 345.0000,1,   1,   1,   1,1.01495, -11.9985, 1.06000, 0.92000, 1.06000, 0.92000
  181,'181         ', 345.0000,1,   1,   1,   1,1.03186, -15.6394, 1.06000, 0.92000, 1.06000, 0.92000
  182,'182         ', 345.0000,1,   1,   1,   1,1.00191, -20.0401, 1.06000, 0.92000, 1.06000, 0.92000
  183,'183         ', 345.0000,1,   1,   1,   1,1.00952, -19.9937, 1.06000, 0.92000, 1.06000, 0.92000
  184,'184         ', 230.0000,1,   1,   1,   1,1.01626, -11.6147, 1.06000, 0.92000, 1.06000, 0.92000
  185,'185         ', 345.0000,1,   1,   1,   1,1.01207,  -9.8857, 1.06000, 0.92000, 1.06000, 0.92000
  186,'186         ', 345.0000,1,   1,   1,   1,1.01252, -20.4439, 1.06000, 0.92000, 1.06000, 0.92000
  187,'187         ', 345.0000,1,   1,   1,   1,1.02091, -18.5802, 1.06000, 0.92000, 1.06000, 0.92000
  188,'188         ', 345.0000,1,   1,   1,   1,1.01818,  -3.4140, 1.06000, 0.92000, 1.06000, 0.92000
  189,'189         ', 345.0000,1,   1,   1,   1,1.01796,  -3.9735, 1.06000, 0.92000, 1.06000, 0.92000
  190,'190         ', 345.0000,1,   1,   1,   1,1.01770,  -9.0175, 1.06000, 0.92000, 1.06000, 0.92000
  191,'191         ', 345.0000,1,   1,   1,   1,1.01828, -12.6524, 1.06000, 0.92000, 1.06000, 0.92000
  192,'192         ', 230.0000,1,   1,   1,   1,1.01327, -16.5338, 1.06000, 0.92000, 1.06000, 0.92000
  193,'193         ', 345.0000,1,   1,   1,   1,1.01678, -15.6661, 1.06000, 0.92000, 1.06000, 0.92000
  194,'194         ', 345.0000,1,   1,   1,   1,1.01472, -17.4994, 1.06000, 0.92000, 1.06000, 0.92000
  195,'195         ', 230.0000,1,   1,   1,   1,0.99143, -18.6566, 1.06000, 0.92000, 1.06000, 0.92000
  196,'196         ', 345.0000,1,   1,   1,   1,0.99505, -17.1448, 1.06000, 0.92000, 1.06000, 0.92000
  197,'197         ', 230.0000,1,   1,   1,   1,0.99633, -19.3108, 1.06000, 0.92000, 1.06000, 0.92000
  198,'198         ', 345.0000,1,   1,   1,   1,0.99649, -16.9560, 1.06000, 0.92000, 1.06000, 0.92000
  199,'199         ', 345.0000,1,   1,   1,   1,0.99938, -10.7098, 1.06000, 0.92000, 1.06000, 0.92000
  200,'200         ', 345.0000,1,   1,   1,   1,1.01488, -13.4247, 1.06000, 0.92000, 1.06000, 0.92000
...
0 / END OF BUS DATA, BEGIN LOAD DATA
    1,'1 ',1,   1,   1,     0.000,     0.000,     0.000,     0.000,     0.000,     0.000,   1,1
    2,'1 ',1,   1,   1,    97.248,    28.433,     0.000,     0.000,     0.000,     0.000,   1,1
    3,'1 ',1,   1,   1,     0.000,     0.000,     0.000,     0.000,     0.000,     0.000,   1,1
    4,'1 ',1,   1,   1,    67.197,    18.847,     0.000,     0.000,     0.000,     0.000,   1,1
    5,'1 ',1,   1,   1,    75.873,    24.245,     0.000,     0.000,     0.000,     0.000,   1,1
    6,'1 ',1,   1,   1,    69.214,    19.951,     0.000,     0.000,     0.000,     0.000,   1,1
    7,'1 ',1,   1,   1,   113.778,    35.698,     0.000,     0.000,     0.000,     0.000,   1,1
    8,'1 ',1,   1,   1,    96.033,    29.114,     0.000,     0.000,     0.000,     0.000,   1,1
    9,'1 ',1,   1,   1,     0.000,     0.000,     0.000,     0.000,     0.000,     0.000,   1,1
   10,'1 ',1,   1,   1,    70.756,    23.333,     0.000,     0.000,     0.000,     0.000,   1,1
   11,'1 ',1,   1,   1,     0.000,     0.000,     0.000,     0.000,     0.000,     0.000,   1,1
   12,'1 ',1,   1,   1,     2.112,     0.608,     0.000,     0.000,     0.000,     0.000,   1,1
   13,'1 ',1,   1,   1,     0.000,     0.000,     0.000,     0.000,     0.000,     0.000,   1,1
   14,'1 ',1,   1,   1,    93.518,    25.336,     0.000,     0.000,     0.000,     0.000,   1,1
   15,'1 ',1,   1,   1,   114.093,    32.018,     0.000,     0.000,     0.000,     0.000,   1,1
   16,'1 ',1,   1,   1,   133.130,    36.430,     0.000,     0.000,     0.000,     0.000,   1,1
   17,'1 ',1,   1,   1,    68.525,    21.850,     0.000,     0.000,     0.000,     0.000,   1,1
   18,'1 ',1,   1,   1,    79.082,    21.903,     0.000,     0.000,     0.000,     0.000,   1,1
   19,'1 ',1,   1,   1,    82.353,    25.520,     0.000,     0.000,     0.000,     0.000,   1,1
   20,'1 ',1,   1,   1,    79.910,    22.805,     0.000,     0.000,     0.000,     0.000,   1,1
   21,'1 ',1,   1,   1,   116.088,    30.654,     0.000,     0.000,     0.000,     0.000,   1,1
   22,'1 ',1,   1,   1,   103.581,    28.398,     0.000,     0.000,     0.000,     0.000,   1,1
   23,'1 ',1,   1,   1,    76.819,    23.370,     0.000,     0.000,     0.000,     0.000,   1,1
   24,'1 ',1,   1,   1,    90.527,    28.611,     0.000,     0.000,     0.000,     0.000,   1,1
   25,'1 ',1,   1,   1,    67.199,    21.486,     0.000,     0.000,     0.000,     0.000,   1,1
   26,'1 ',1,   1,   1,    80.653,    20.762,     0.000,     0.000,     0.000,     0.000,   1,1
   27,'1 ',1,   1,   1,    78.753,    25.735,     0.000,     0.000,     0.000,     0.000,   1,1
   28,'1 ',1,   1,   1,   120.625,    34.292,     0.000,     0.000,     0.000,     0.000,   1,1
   29,'1 ',1,   1,   1,    71.932,    24.821,     0.000,     0.000,     0.000,     0.000,   1,1
   30,'1 ',1,   1,   1,     0.000,     0.000,     0.000,     0.000,     0.000,     0.000,   1,1
   31,'1 ',1,   1,   1,     0.000,     0.000,     0.000,     0.000,     0.000,     0.000,   1,1
   32,'1 ',1,   1,   1,     0.000,     0.000,     0.000,     0.000,     0.000,     0.000,   1,1
   33,'1 ',1,   1,   1,   108.239,    22.825,     0.000,     0.000,     0.000,     0.000,   1,1
   34,'1 ',1,   1,   1,    64.774,    19.902,     0.000,     0.000,     0.000,     0.000,   1,1
   35,'1 ',1,   1,   1,     0.000,     0.000,     0.000,     0.000,     0.000,     0.000,   1,1
   36,'1 ',1,   1,   1,     0.000,     0.000,     0.000,     0.000,     0.000,     0.000,   1,1
   37,'1 ',1,   1,   1,     0.000,     0.000,     0.000,     0.000,     0.000,     0.000,   1,1
   38,'1 ',1,   1,   1,     0.000,     0.000,     0.000,     0.000,     0.000,     0.000,   1,1
   39,'1 ',1,   1,   1,    75.105,    24.627,     0.000,     0.000,     0.000,     0.000,   1,1
   40,'1 ',1,   1,   1,    76.211,    21.758,     0.000,     0.000,     0.000,     0.000,   1,1
   41,'1 ',1,   1,   1,   101.642,    26.920,     0.000,     0.000,     0.000,     0.000,   1,1
   42,'1 ',1,   1,   1,   113.836,    28.109,     0.000,     0.000,     0.000,     0.000,   1,1
   43,'1 ',1,   1,   1,   102.107,    34.493,     0.000,     0.000,     0.000,     0.000,   1,1
   44,'1 ',1,   1,   1,    65.371,    21.825,     0.000,     0.000,     0.000,     0.000,   1,1
   45,'1 ',1,   1,   1,    96.621,    26.231,     0.000,     0.000,     0.000,     0.000,   1,1
   46,'1 ',1,   1,   1,    86.439,    27.555,     0.000,     0.000,     0.000,     0.000,   1,1
   47,'1 ',1,   1,   1,    77.234,    25.792,     0.000,     0.000,     0.000,     0.000,   1,1
   48,'1 ',1,   1,   1,    93.823,    29.275,     0.000,     0.000,     0.000,     0.000,   1,1
   49,'1 ',1,   1,   1,    59.043,    21.667,     0.000,     0.000,     0.000,     0.000,   1,1
   50,'1 ',1,   1,   1,    90.765,    29.259,     0.000,     0.000,     0.000,     0.000,   1,1
   51,'1 ',1,   1,   1,    75.728,    24.337,     0.000,     0.000,     0.000,     0.000,   1,1
   52,'1 ',1,   1,   1,    98.416,    26.473,     0.000,     0.000,     0.000,     0.000,   1,1
   53,'1 ',1,   1,   1,   146.490,    45.299,     0.000,     0.000,     0.000,     0.000,   1,1
   54,'1 ',1,   1,   1,    62.888,    24.964,     0.000,     0.000,     0.000,     0.000,   1,1
   55,'1 ',1,   1,   1,    93.439,    30.948,     0.000,     0.000,     0.000,     0.000,   1,1
   56,'1 ',1,   1,   1,   104.860,    29.702,     0.000,     0.000,     0.000,     0.000,   1,1
   57,'1 ',1,   1,   1,    54.468,    19.649,     0.000,     0.000,     0.000,     0.000,   1,1
   58,'1 ',1,   1,   1,   120.604,    31.726,     0.000,     0.000,     0.000,     0.000,   1,1
   59,'1 ',1,   1,   1,    73.334,    23.677,     0.000,     0.000,     0.000,     0.000,   1,1
   60,'1 ',1,   1,   1,    83.756,    28.056,     0.000,     0.000,     0.000,     0.000,   1,1
   61,'1 ',1,   1,   1,   100.605,    27.789,     0.000,     0.000,     0.000,     0.000,   1,1
   62,'1 ',1,   1,   1,    93.669,    24.898,     0.000,     0.000,     0.000,     0.000,   1,1
   63,'1 ',1,   1,   1,    71.312,    25.921,     0.000,     0.000,     0.000,     0.000,   1,1
   64,'1 ',1,   1,   1,   155.400,    47.574,     0.000,     0.000,     0.000,     0.000,   1,1
   65,'1 ',1,   1,   1,    61.144,    21.718,     0.000,     0.000,     0.000,     0.000,   1,1
   66,'1 ',1,   1,   1,    71.145,    26.315,     0.000,     0.000,     0.000,     0.000,   1,1
   67,'1 ',1,   1,   1,    85.034,    22.997,     0.000,     0.000,     0.000,     0.000,   1,1
   68,'1 ',1,   1,   1,   103.003,    30.369,     0.000,     0.000,     0.000,     0.000,   1,1
   69,'1 ',1,   1,   1,    56.377,    19.854,     0.000,     0.000,     0.000,     0.000,   1,1
   70,'1 ',1,   1,   1,    80.465,    23.986,     0.000,     0.000,     0.000,     0.000,   1,1
   71,'1 ',1,   1,   1,    62.438,    20.601,     0.000,     0.000,     0.000,     0.000,   1,1
   72,'1 ',1,   1,   1,    55.137,    19.343,     0.000,     0.000,     0.000,     0.000,   1,1
   73,'1 ',1,   1,   1,    67.133,    20.516,     0.000,     0.000,     0.000,     0.000,   1,1
   74,'1 ',1,   1,   1,    73.681,    24.199,     0.000,     0.000,     0.000,     0.000,   1,1
   75,'1 ',1,   1,   1,    78.652,    24.624,     0.000,     0.000,     0.000,     0.000,   1,1
   76,'1 ',1,   1,   1,   106.949,    23.094,     0.000,     0.000,     0.000,     0.000,   1,1
   77,'1 ',1,   1,   1,    72.067,    18.947,     0.000,     0.000,     0.000,     0.000,   1,1
   78,'1 ',1,   1,   1,    89.549,    24.439,     0.000,     0.000,     0.000,     0.000,   1,1
   79,'1 ',1,   1,   1,   123.387,    39.726,     0.000,     0.000,     0.000,     0.000,   1,1
   80,'1 ',1,   1,   1,    96.946,    27.752,     0.000,     0.000,     0.000,     0.000,   1,1
   81,'1 ',1,   1,   1,   105.126,    27.355,     0.000,     0.000,     0.000,     0.000,   1,1
   82,'1 ',1,   1,   1,    72.006,    20.028,     0.000,     0.000,     0.000,     0.000,   1,1
   83,'1 ',1,   1,   1,    75.440,    24.490,     0.000,     0.000,     0.000,     0.000,   1,1
   84,'1 ',1,   1,   1,    56.612,    19.872,     0.000,     0.000,     0.000,     0.000,   1,1
   85,'1 ',1,   1,   1,    62.974,    22.608,     0.000,     0.000,     0.000,     0.000,   1,1
   86,'1 ',1,   1,   1,   100.531,    28.574,     0.000,     0.000,     0.000,     0.000,   1,1
   87,'1 ',1,   1,   1,   114.616,    27.803,     0.000,     0.000,     0.000,     0.000,   1,1
   88,'1 ',1,   1,   1,    90.013,    28.550,     0.000,     0.000,     0.000,     0.000,   1,1
   89,'1 ',1,   1,   1,    70.176,    24.845,     0.000,     0.000,     0.000,     0.000,   1,1
   90,'1 ',1,   1,   1,    63.286,    22.163,     0.000,     0.000,     0.000,     0.000,   1,1
   91,'1 ',1,   1,   1,    77.403,    18.773,     0.000,     0.000,     0.000,     0.000,   1,1
   92,'1 ',1,   1,   1,    72.434,    22.655,     0.000,     0.000,     0.000,     0.000,   1,1
   93,'1 ',1,   1,   1,    82.138,    22.474,     0.000,     0.000,     0.000,     0.000,   1,1
   94,'1 ',1,   1,   1,   102.239,    28.783,     0.000,     0.000,     0.000,     0.000,   1,1
   95,'1 ',1,   1,   1,    92.440,    23.454,     0.000,     0.000,     0.000,     0.000,   1,1
   96,'1 ',1,   1,   1,   106.226,    30.003,     0.000,     0.000,     0.000,     0.000,   1,1
   97,'1 ',1,   1,   1,   104.817,    24.611,     0.000,     0.000,     0.000,     0.000,   1,1
   98,'1 ',1,   1,   1,   108.828,    25.412,     0.000,     0.000,     0.000,     0.000,   1,1
   99,'1 ',1,   1,   1,   104.156,    27.104,     0.000,     0.000,     0.000,     0.000,   1,1
  100,'1 ',1,   1,   1,    80.692,    22.488,     0.000,     0.000,     0.000,     0.000,   1,1
  101,'1 ',1,   1,   1,    76.310,    24.621,     0.000,     0.000,     0.000,     0.000,   1,1
  102,'1 ',1,   1,   1,    50.388,    18.930,     0.000,     0.000,     0.000,     0.000,   1,1
  103,'1 ',1,   1,   1,   121.412,    39.842,     0.000,     0.000,     0.000,     0.000,   1,1
  104,'1 ',1,   1,   1,    87.903,    25.311,     0.000,     0.000,     0.000,     0.000,   1,1
  105,'1 ',1,   1,   1,    65.511,    17.410,     0.000,     0.000,     0.000,     0.000,   1,1
  106,'1 ',1,   1,   1,    65.507,    20.838,     0.000,     0.000,     0.000,     0.000,   1,1
  107,'1 ',1,   1,   1,    76.891,    18.703,     0.000,     0.000,     0.000,     0.000,   1,1
  108,'1 ',1,   1,   1,   127.448,    34.012,     0.000,     0.000,     0.000,     0.000,   1,1
  109,'1 ',1,   1,   1,    94.738,    30.194,     0.000,     0.000,     0.000,     0.000,   1,1
  110,'1 ',1,   1,   1,    51.420,    15.782,     0.000,     0.000,     0.000,     0.000,   1,1
  111,'1 ',1,   1,   1,    91.565,    28.520,     0.000,     0.000,     0.000,     0.000,   1,1
  112,'1 ',1,   1,   1,   123.740,    32.139,     0.000,     0.000,     0.000,     0.000,   1,1
  113,'1 ',1,   1,   1,    50.023,    15.857,     0.000,     0.000,     0.000,     0.000,   1,1
  114,'1 ',1,   1,   1,    52.309,    19.673,     0.000,     0.000,     0.000,     0.000,   1,1
  115,'1 ',1,   1,   1,    58.965,    18.880,     0.000,     0.000,     0.000,     0.000,   1,1
  116,'1 ',1,   1,   1,   111.269,    26.738,     0.000,     0.000,     0.000,     0.000,   1,1
  117,'1 ',1,   1,   1,    84.418,    23.923,     0.000,     0.000,     0.000,     0.000,   1,1
  118,'1 ',1,   1,   1,    51.424,    18.333,     0.000,     0.000,     0.000,     0.000,   1,1
  119,'1 ',1,   1,   1,   105.663,    29.504,     0.000,     0.000,     0.000,     0.000,   1,1
  120,'1 ',1,   1,   1,    65.450,    20.270,     0.000,     0.000,     0.000,     0.000,   1,1
  121,'1 ',1,   1,   1,    79.453,    23.762,     0.000,     0.000,     0.000,     0.000,   1,1
  122,'1 ',1,   1,   1,    65.444,    19.919,     0.000,     0.000,     0.000,     0.000,   1,1
  123,'1 ',1,   1,   1,    96.070,    24.563,     0.000,     0.000,     0.000,     0.000,   1,1
  124,'1 ',1,   1,   1,    97.590,    26.150,     0.000,     0.000,     0.000,     0.000,   1,1
  125,'1 ',1,   1,   1,   101.748,    26.780,     0.000,     0.000,     0.000,     0.000,   1,1
  126,'1 ',1,   1,   1,    84.685,    20.945,     0.000,     0.000,     0.000,     0.000,   1,1
  127,'1 ',1,   1,   1,    97.760,    24.876,     0.000,     0.000,     0.000,     0.000,   1,1
  128,'1 ',1,   1,   1,   106.148,    30.005,     0.000,     0.000,     0.000,     0.000,   1,1
  129,'1 ',1,   1,   1,    80.052,    25.100,     0.000,     0.000,     0.000,     0.000,   1,1
  130,'1 ',1,   1,   1,    86.216,    26.401,     0.000,     0.000,     0.000,     0.000,   1,1
  131,'1 ',1,   1,   1,   117.818,    29.544,     0.000,     0.000,     0.000,     0.000,   1,1
  132,'1 ',1,   1,   1,   109.152,    24.710,     0.000,     0.000,     0.000,     0.000,   1,1
  133,'1 ',1,   1,   1,    70.151,    19.359,     0.000,     0.000,     0.000,     0.000,   1,1
  134,'1 ',1,   1,   1,    83.074,    21.106,     0.000,     0.000,     0.000,     0.000,   1,1
  135,'1 ',1,   1,   1,    61.199,    19.589,     0.000,     0.000,     0.000,     0.000,   1,1
  136,'1 ',1,   1,   1,    75.306,    21.372,     0.000,     0.000,     0.000,     0.000,   1,1
  137,'1 ',1,   1,   1,    60.392,    18.101,     0.000,     0.000,     0.000,     0.000,   1,1
  138,'1 ',1,   1,   1,   103.659,    27.715,     0.000,     0.000,     0.000,     0.000,   1,1
  139,'1 ',1,   1,   1,    89.391,    23.962,     0.000,     0.000,     0.000,     0.000,   1,1
  140,'1 ',1,   1,   1,   118.043,    26.029,     0.000,     0.000,     0.000,     0.000,   1,1
  141,'1 ',1,   1,   1,   106.747,    29.308,     0.000,     0.000,     0.000,     0.000,   1,1
  142,'1 ',1,   1,   1,    70.835,    21.527,     0.000,     0.000,     0.000,     0.000,   1,1
  143,'1 ',1,   1,   1,   101.591,    29.416,     0.000,     0.000,     0.000,     0.000,   1,1
  144,'1 ',1,   1,   1,   120.611,    28.724,     0.000,     0.000,     0.000,     0.000,   1,1
  145,'1 ',1,   1,   1,    93.721,    27.178,     0.000,     0.000,     0.000,     0.000,   1,1
  146,'1 ',1,   1,   1,   100.203,    23.464,     0.000,     0.000,     0.000,     0.000,   1,1
  147,'1 ',1,   1,   1,    62.954,    20.093,     0.000,     0.000,     0.000,     0.000,   1,1
  148,'1 ',1,   1,   1,    73.150,    22.405,     0.000,     0.000,     0.000,     0.000,   1,1
  149,'1 ',1,   1,   1,   124.024,    32.067,     0.000,     0.000,     0.000,     0.000,   1,1
  150,'1 ',1,   1,   1,    88.974,    25.565,     0.000,     0.000,     0.000,     0.000,   1,1
  151,'1 ',1,   1,   1,    75.124,    24.406,     0.000,     0.000,     0.000,     0.000,   1,1
  152,'1 ',1,   1,   1,    60.976,    21.055,     0.000,     0.000,     0.000,     0.000,   1,1
  153,'1 ',1,   1,   1,    70.477,    25.309,     0.000,     0.000,     0.000,     0.000,   1,1
  154,'1 ',1,   1,   1,    86.749,    26.591,     0.000,     0.000,     0.000,     0.000,   1,1
  155,'1 ',1,   1,   1,    84.761,    26.296,     0.000,     0.000,     0.000,     0.000,   1,1
  156,'1 ',1,   1,   1,    87.345,    26.461,     0.000,     0.000,     0.000,     0.000,   1,1
  157,'1 ',1,   1,   1,    86.724,    26.403,     0.000,     0.000,     0.000,     0.000,   1,1
  158,'1 ',1,   1,   1,    86.780,    25.200,     0.000,     0.000,     0.000,     0.000,   1,1
  159,'1 ',1,   1,   1,    90.147,    24.352,     0.000,     0.000,     0.000,     0.000,   1,1
  160,'1 ',1,   1,   1,   110.673,    30.921,     0.000,     0.000,     0.000,     0.000,   1,1
  161,'1 ',1,   1,   1,    56.361,    18.229,     0.000,     0.000,     0.000,     0.000,   1,1
  162,'1 ',1,   1,   1,    81.653,    24.222,     0.000,     0.000,     0.000,     0.000,   1,1
  163,'1 ',1,   1,   1,   104.479,    26.133,     0.000,     0.000,     0.000,     0.000,   1,1
  164,'1 ',1,   1,   1,    77.737,    24.018,     0.000,     0.000,     0.000,     0.000,   1,1
  165,'1 ',1,   1,   1,    83.753,    24.990,     0.000,     0.000,     0.000,     0.000,   1,1
  166,'1 ',1,   1,   1,    78.141,    21.917,     0.000,     0.000,     0.000,     0.000,   1,1
  167,'1 ',1,   1,   1,    78.082,    25.095,     0.000,     0.000,     0.000,     0.000,   1,1
  168,'1 ',1,   1,   1,    51.324,    16.964,     0.000,     0.000,     0.000,     0.000,   1,1
  169,'1 ',1,   1,   1,    82.285,    23.127,     0.000,     0.000,     0.000,     0.000,   1,1
  170,'1 ',1,   1,   1,    87.029,    22.642,     0.000,     0.000,     0.000,     0.000,   1,1
  171,'1 ',1,   1,   1,    75.208,    21.966,     0.000,     0.000,     0.000,     0.000,   1,1
  172,'1 ',1,   1,   1,    87.791,    26.495,     0.000,     0.000,     0.000,     0.000,   1,1
  173,'1 ',1,   1,   1,    77.269,    25.377,     0.000,     0.000,     0.000,     0.000,   1,1
  174,'1 ',1,   1,   1,    93.882,    27.179,     0.000,     0.000,     0.000,     0.000,   1,1
  175,'1 ',1,   1,   1,    75.361,    24.216,     0.000,     0.000,     0.000,     0.000,   1,1
  176,'1 ',1,   1,   1,    92.242,    27.232,     0.000,     0.000,     0.000,     0.000,   1,1
  177,'1 ',1,   1,   1,   131.783,    40.461,     0.000,     0.000,     0.000,     0.000,   1,1
  178,'1 ',1,   1,   1,    69.633,    19.948,     0.000,     0.000,     0.000,     0.000,   1,1
  179,'1 ',1,   1,   1,     6.528,     2.017,     0.000,     0.000,     0.000,     0.000,   1,1
  180,'1 ',1,   1,   1,     9.745,     2.569,     0.000,     0.000,     0.000,     0.000,   1,1
  181,'1 ',1,   1,   1,     0.000,     0.000,     0.000,     0.000,     0.000,     0.000,   1,1
  182,'1 ',1,   1,   1,     0.000,     0.000,     0.000,     0.000,     0.000,     0.000,   1,1
  183,'1 ',1,   1,   1,     0.000,     0.000,     0.000,     0.000,     0.000,     0.000,   1,1
  184,'1 ',1,   1,   1,     0.000,     0.000,     0.000,     0.000,     0.000,     0.000,   1,1
  185,'1 ',1,   1,   1,     0.000,     0.000,     0.000,     0.000,     0.000,     0.000,   1,1
  186,'1 ',1,   1,   1,     0.000,     0.000,     0.000,     0.000,     0.000,     0.000,   1,1
  187,'1 ',1,   1,   1,     0.000,     0.000,     0.000,     0.000,     0.000,     0.000,   1,1
  188,'1 ',1,   1,   1,     0.000,     0.000,     0.000,     0.000,     0.000,     0.000,   1,1
  189,'1 ',1,   1,   1,     0.000,     0.000,     0.000,     0.000,     0.000,     0.000,   1,1
  190,'1 ',1,   1,   1,     0.000,     0.000,     0.000,     0.000,     0.000,     0.000,   1,1
  191,'1 ',1,   1,   1,     0.000,     0.000,     0.000,     0.000,     0.000,     0.000,   1,1
  192,'1 ',1,   1,   1,     0.000,     0.000,     0.000,     0.000,     0.000,     0.000,   1,1
  193,'1 ',1,   1,   1,     0.000,     0.000,     0.000,     0.000,     0.000,     0.000,   1,1
  194,'1 ',1,   1,   1,     0.000,     0.000,     0.000,     0.000,     0.000,     0.000,   1,1
  195,'1 ',1,   1,   1,     0.000,     0.000,     0.000,     0.000,     0.000,     0.000,   1,1
  196,'1 ',1,   1,   1,     0.000,     0.000,     0.000,     0.000,     0.000,     0.000,   1,1
  197,'1 ',1,   1,   1,     0.000,     0.000,     0.000,     0.000,     0.000,     0.000,   1,1
  198,'1 ',1,   1,   1,     0.000,     0.000,     0.000,     0.000,     0.000,     0.000,   1,1
  199,'1 ',1,   1,   1,     0.000,     0.000,     0.000,     0.000,     0.000,     0.000,   1,1
  200,'1 ',1,   1,   1,     0.000,     0.000,     0.000,     0.000,     0.000,     0.000,   1,1
...
0 / END OF LOAD DATA, BEGIN FIXED SHUNT DATA
0 / END OF FIXED SHUNT DATA, BEGIN GENERATOR DATA
    1,'1 ',     3.682,  -103.000,   103.000,  -103.000,1.02000,    0,   100.000,   0.00000,   1.00000,   0.00000,   0.00000,1.00000,1,  100.0,   338.000,     3.000,   1,1.0000,   0,1.0000,   0,1.0000,   0,1.0000,1, 1.0000
    3,'1 ',   365.728,   -16.086,   392.000,  -209.000,1.02000,    0,   100.000,   0.00000,   1.00000,   0.00000,   0.00000,1.00000,1,  100.0,   686.000,   298.000,   1,1.0000,   0,1.0000,   0,1.0000,   0,1.0000,0, 1.0000
    7,'1 ',   170.591,   128.869,   385.000,  -205.000,1.02000,    0,   100.000,   0.00000,   1.00000,   0.00000,   0.00000,1.00000,1,  100.0,   674.000,   139.000,   1,1.0000,   0,1.0000,   0,1.0000,   0,1.0000,0, 1.0000
    8,'1 ',   231.955,    92.179,   349.000,  -186.000,1.02000,    0,   100.000,   0.00000,   1.00000,   0.00000,   0.00000,1.00000,1,  100.0,   611.000,   189.000,   1,1.0000,   0,1.0000,   0,1.0000,   0,1.0000,0, 1.0000
   10,'1 ',  1896.684,   119.749,  1298.000,  -692.000,1.02000,    0,   100.000,   0.00000,   1.00000,   0.00000,   0.00000,1.00000,1,  100.0,  2271.000,  1406.000,   1,1.0000,   0,1.0000,   0,1.0000,   0,1.0000,0, 1.0000
   24,'1 ',   353.456,   114.401,   309.000,  -165.000,1.02000,    0,   100.000,   0.00000,   1.00000,   0.00000,   0.00000,1.00000,1,  100.0,   541.000,   288.000,   1,1.0000,   0,1.0000,   0,1.0000,   0,1.0000,0, 1.0000
   26,'1 ',   147.273,    -1.195,   171.000,   -91.000,1.02000,    0,   100.000,   0.00000,   1.00000,   0.00000,   0.00000,1.00000,1,  100.0,   300.000,   120.000,   1,1.0000,   0,1.0000,   0,1.0000,   0,1.0000,0, 1.0000
   28,'1 ',   265.092,    67.627,   338.000,  -180.000,1.02000,    0,   100.000,   0.00000,   1.00000,   0.00000,   0.00000,1.00000,1,  100.0,   592.000,   216.000,   1,1.0000,   0,1.0000,   0,1.0000,   0,1.0000,0, 1.0000
   30,'1 ',   153.410,   -46.046,   150.000,   -80.000,1.02000,    0,   100.000,   0.00000,   1.00000,   0.00000,   0.00000,1.00000,1,  100.0,   263.000,   125.000,   1,1.0000,   0,1.0000,   0,1.0000,   0,1.0000,0, 1.0000
   31,'1 ',   295.774,    33.886,   457.000,  -244.000,1.02000,    0,   100.000,   0.00000,   1.00000,   0.00000,   0.00000,1.00000,1,  100.0,   800.000,   241.000,   1,1.0000,   0,1.0000,   0,1.0000,   0,1.0000,0, 1.0000
   32,'1 ',   200.046,     3.847,   390.000,  -208.000,1.02000,    0,   100.000,   0.00000,   1.00000,   0.00000,   0.00000,1.00000,1,  100.0,   683.000,   163.000,   1,1.0000,   0,1.0000,   0,1.0000,   0,1.0000,0, 1.0000
   33,'1 ',   465.138,   170.868,   379.000,  -202.000,1.02000,    0,   100.000,   0.00000,   1.00000,   0.00000,   0.00000,1.00000,1,  100.0,   664.000,   379.000,   1,1.0000,   0,1.0000,   0,1.0000,   0,1.0000,0, 1.0000
   34,'1 ',   362.047,    95.462,   707.000,  -377.000,1.02000,    0,   100.000,   0.00000,   1.00000,   0.00000,   0.00000,1.00000,1,  100.0,  1237.000,   295.000,   1,1.0000,   0,1.0000,   0,1.0000,   0,1.0000,0, 1.0000
   35,'1 ',  1134.003,   220.214,   792.000,  -422.000,1.02000,    0,   100.000,   0.00000,   1.00000,   0.00000,   0.00000,1.00000,1,  100.0,  1386.000,   924.000,   1,1.0000,   0,1.0000,   0,1.0000,   0,1.0000,0, 1.0000
   36,'1 ',   171.819,    63.346,   336.000,  -179.000,1.02000,    0,   100.000,   0.00000,   1.00000,   0.00000,   0.00000,1.00000,1,  100.0,   588.000,   140.000,   1,1.0000,   0,1.0000,   0,1.0000,   0,1.0000,0, 1.0000
   37,'1 ',   122.728,    42.932,   324.000,  -173.000,1.02000,    0,   100.000,   0.00000,   1.00000,   0.00000,   0.00000,1.00000,1,  100.0,   567.000,   100.000,   1,1.0000,   0,1.0000,   0,1.0000,   0,1.0000,0, 1.0000
   38,'1 ',   255.273,    15.608,   498.000,  -266.000,1.02000,    0,   100.000,   0.00000,   1.00000,   0.00000,   0.00000,1.00000,1,  100.0,   872.000,   208.000,   1,1.0000,   0,1.0000,   0,1.0000,   0,1.0000,0, 1.0000
   49,'1 ',   392.728,    90.587,   347.000,  -185.000,1.02000,    0,   100.000,   0.00000,   1.00000,   0.00000,   0.00000,1.00000,1,  100.0,   607.000,   320.000,   1,1.0000,   0,1.0000,   0,1.0000,   0,1.0000,0, 1.0000
   52,'1 ',   198.819,   134.077,   938.000,  -500.000,1.02000,    0,   100.000,   0.00000,   1.00000,   0.00000,   0.00000,1.00000,1,  100.0,  1642.000,   162.000,   1,1.0000,   0,1.0000,   0,1.0000,   0,1.0000,0, 1.0000
   54,'1 ',   255.273,    12.879,   312.000,  -166.000,1.02000,    0,   100.000,   0.00000,   1.00000,   0.00000,   0.00000,1.00000,1,  100.0,   546.000,   208.000,   1,1.0000,   0,1.0000,   0,1.0000,   0,1.0000,0, 1.0000
   56,'1 ',   510.547,   124.732,   416.000,  -222.000,1.02000,    0,   100.000,   0.00000,   1.00000,   0.00000,   0.00000,1.00000,1,  100.0,   728.000,   416.000,   1,1.0000,   0,1.0000,   0,1.0000,   0,1.0000,0, 1.0000
   69,'1 ',   182.864,    92.531,   297.000,  -158.000,1.02000,    0,   100.000,   0.00000,   1.00000,   0.00000,   0.00000,1.00000,1,  100.0,   520.000,   149.000,   1,1.0000,   0,1.0000,   0,1.0000,   0,1.0000,0, 1.0000
   72,'1 ',   104.318,   150.000,   150.000,   -80.000,1.02000,    0,   100.000,   0.00000,   1.00000,   0.00000,   0.00000,1.00000,1,  100.0,   263.000,    85.000,   1,1.0000,   0,1.0000,   0,1.0000,   0,1.0000,0, 1.0000
   76,'1 ',   533.865,   127.791,   504.000,  -269.000,1.02000,    0,   100.000,   0.00000,   1.00000,   0.00000,   0.00000,1.00000,1,  100.0,   882.000,   435.000,   1,1.0000,   0,1.0000,   0,1.0000,   0,1.0000,0, 1.0000
   78,'1 ',   159.546,   -79.495,   165.000,   -88.000,1.02000,    0,   100.000,   0.00000,   1.00000,   0.00000,   0.00000,1.00000,1,  100.0,   288.000,   130.000,   1,1.0000,   0,1.0000,   0,1.0000,   0,1.0000,0, 1.0000
   80,'1 ',   138.682,   -78.175,   330.000,  -176.000,1.02000,    0,   100.000,   0.00000,   1.00000,   0.00000,   0.00000,1.00000,1,  100.0,   578.000,   113.000,   1,1.0000,   0,1.0000,   0,1.0000,   0,1.0000,0, 1.0000
   82,'1 ',   216.001,   -41.782,   179.000,   -95.000,1.02000,    0,   100.000,   0.00000,   1.00000,   0.00000,   0.00000,1.00000,1,  100.0,   313.000,   176.000,   1,1.0000,   0,1.0000,   0,1.0000,   0,1.0000,0, 1.0000
   84,'1 ',   207.410,    23.501,   508.000,  -271.000,1.02000,    0,   100.000,   0.00000,   1.00000,   0.00000,   0.00000,1.00000,1,  100.0,   888.000,   169.000,   1,1.0000,   0,1.0000,   0,1.0000,   0,1.0000,0, 1.0000
  103,'1 ',   255.273,   183.782,   523.000,  -279.000,1.02000,    0,   100.000,   0.00000,   1.00000,   0.00000,   0.00000,1.00000,1,  100.0,   916.000,   208.000,   1,1.0000,   0,1.0000,   0,1.0000,   0,1.0000,0, 1.0000
  120,'1 ',   197.592,   296.563,   483.000,  -258.000,1.02000,    0,   100.000,   0.00000,   1.00000,   0.00000,   0.00000,1.00000,1,  100.0,   845.000,   161.000,   1,1.0000,   0,1.0000,   0,1.0000,   0,1.0000,0, 1.0000
  128,'1 ',   220.910,    24.881,   216.000,  -115.000,1.02000,    0,   100.000,   0.00000,   1.00000,   0.00000,   0.00000,1.00000,1,  100.0,   378.000,   180.000,   1,1.0000,   0,1.0000,   0,1.0000,   0,1.0000,0, 1.0000
  130,'1 ',   141.137,    82.935,   153.000,   -81.000,1.02000,    0,   100.000,   0.00000,   1.00000,   0.00000,   0.00000,1.00000,1,  100.0,   267.000,   115.000,   1,1.0000,   0,1.0000,   0,1.0000,   0,1.0000,0, 1.0000
  141,'1 ',  1076.322,   208.201,   967.000,  -515.000,1.02000,    0,   100.000,   0.00000,   1.00000,   0.00000,   0.00000,1.00000,1,  100.0,  1691.000,   877.000,   1,1.0000,   0,1.0000,   0,1.0000,   0,1.0000,0, 1.0000
  143,'1 ',   190.228,    91.870,   173.000,   -92.000,1.02000,    0,   100.000,   0.00000,   1.00000,   0.00000,   0.00000,1.00000,1,  100.0,   303.000,   155.000,   1,1.0000,   0,1.0000,   0,1.0000,   0,1.0000,0, 1.0000
  146,'1 ',   368.183,   230.120,   347.000,  -185.000,1.02000,    0,   100.000,   0.00000,   1.00000,   0.00000,   0.00000,1.00000,1,  100.0,   607.000,   300.000,   1,1.0000,   0,1.0000,   0,1.0000,   0,1.0000,0, 1.0000
  149,'1 ',   228.273,    48.549,   157.000,   -83.000,1.02000,    0,   100.000,   0.00000,   1.00000,   0.00000,   0.00000,1.00000,1,  100.0,   274.000,   186.000,   1,1.0000,   0,1.0000,   0,1.0000,   0,1.0000,0, 1.0000
  157,'1 ',   353.456,    57.043,   298.000,  -159.000,1.02000,    0,   100.000,   0.00000,   1.00000,   0.00000,   0.00000,1.00000,1,  100.0,   521.000,   288.000,   1,1.0000,   0,1.0000,   0,1.0000,   0,1.0000,0, 1.0000
  162,'1 ',   282.274,    71.626,   363.000,  -194.000,1.02000,    0,   100.000,   0.00000,   1.00000,   0.00000,   0.00000,1.00000,1,  100.0,   636.000,   230.000,   1,1.0000,   0,1.0000,   0,1.0000,   0,1.0000,0, 1.0000
  165,'1 ',   959.730,    63.795,   745.000,  -397.000,1.02000,    0,   100.000,   0.00000,   1.00000,   0.00000,   0.00000,1.00000,1,  100.0,  1304.000,   782.000,   1,1.0000,   0,1.0000,   0,1.0000,   0,1.0000,0, 1.0000
  166,'1 ',   339.956,   103.811,   474.000,  -253.000,1.02000,    0,   100.000,   0.00000,   1.00000,   0.00000,   0.00000,1.00000,1,  100.0,   830.000,   277.000,   1,1.0000,   0,1.0000,   0,1.0000,   0,1.0000,0, 1.0000
  175,'1 ',   256.501,    38.952,   358.000,  -191.000,1.02000,    0,   100.000,   0.00000,   1.00000,   0.00000,   0.00000,1.00000,1,  100.0,   626.000,   209.000,   1,1.0000,   0,1.0000,   0,1.0000,   0,1.0000,0, 1.0000
  176,'1 ',   105.546,    18.278,   153.000,   -81.000,1.02000,    0,   100.000,   0.00000,   1.00000,   0.00000,   0.00000,1.00000,1,  100.0,   267.000,    86.000,   1,1.0000,   0,1.0000,   0,1.0000,   0,1.0000,0, 1.0000
0 / END OF GENERATOR DATA, BEGIN BRANCH DATA
    1,     2,'1 ', 0.00598, 0.12062,1.98515, 414.51, 414.51, 414.51,  0.00000,  0.00000,  0.00000,  0.00000,1,1, 239.2,   1,1.0000,   0,1.0000,   0,1.0000,   0,1.0000
    2,    39,'1 ', 0.00868, 0.06020,0.52937, 530.03, 530.03, 530.03,  0.00000,  0.00000,  0.00000,  0.00000,1,1,  86.8,   1,1.0000,   0,1.0000,   0,1.0000,   0,1.0000
    2,   139,'1 ', 0.00339, 0.02318,0.20974, 530.03, 530.03, 530.03,  0.00000,  0.00000,  0.00000,  0.00000,1,1,  33.9,   1,1.0000,   0,1.0000,   0,1.0000,   0,1.0000
    2,   181,'1 ', 0.00761, 0.05275,0.46393, 530.03, 530.03, 530.03,  0.00000,  0.00000,  0.00000,  0.00000,1,1,  76.1,   1,1.0000,   0,1.0000,   0,1.0000,   0,1.0000
    2,   201,'1 ', 0.00274, 0.01875,0.16965, 530.03, 530.03, 530.03,  0.00000,  0.00000,  0.00000,  0.00000,1,1,  27.4,   1,1.0000,   0,1.0000,   0,1.0000,   0,1.0000
    3,    18,'1 ', 0.00383, 0.15813,0.09685, 316.20, 316.20, 316.20,  0.00000,  0.00000,  0.00000,  0.00000,1,1,  60.3,   1,1.0000,   0,1.0000,   0,1.0000,   0,1.0000
    4,    75,'1 ', 0.01684, 0.03812,0.00951, 107.32, 107.32, 107.32,  0.00000,  0.00000,  0.00000,  0.00000,1,1,   9.2,   1,1.0000,   0,1.0000,   0,1.0000,   0,1.0000
    5,     8,'1 ', 0.00296, 0.03933,0.08406, 578.83, 578.83, 578.83,  0.00000,  0.00000,  0.00000,  0.00000,1,1,  27.9,   1,1.0000,   0,1.0000,   0,1.0000,   0,1.0000
    5,   184,'1 ', 0.04502, 0.11101,0.17939, 178.87, 178.87, 178.87,  0.00000,  0.00000,  0.00000,  0.00000,1,1,  68.6,   1,1.0000,   0,1.0000,   0,1.0000,   0,1.0000
    5,   207,'1 ', 0.00112, 0.01328,0.03027, 541.39, 541.39, 541.39,  0.00000,  0.00000,  0.00000,  0.00000,1,1,   9.7,   1,1.0000,   0,1.0000,   0,1.0000,   0,1.0000
    6,     7,'1 ', 0.06200, 0.14575,0.03365, 107.32, 107.32, 107.32,  0.00000,  0.00000,  0.00000,  0.00000,1,1,  34.0,   1,1.0000,   0,1.0000,   0,1.0000,   0,1.0000
    6,    70,'1 ', 0.03364, 0.07769,0.01859, 107.32, 107.32, 107.32,  0.00000,  0.00000,  0.00000,  0.00000,1,1,  18.5,   1,1.0000,   0,1.0000,   0,1.0000,   0,1.0000
    8,    54,'1 ', 0.00033, 0.00508,0.01216, 665.28, 665.28, 665.28,  0.00000,  0.00000,  0.00000,  0.00000,1,1,   3.8,   1,1.0000,   0,1.0000,   0,1.0000,   0,1.0000
  187,     9,'1 ', 0.00684, 0.04742,0.41703, 530.03, 530.03, 530.03,  0.00000,  0.00000,  0.00000,  0.00000,1,1,  68.4,   1,1.0000,   0,1.0000,   0,1.0000,   0,1.0000
   10,    11,'1 ', 0.00032, 0.00856,0.00495, 566.01, 566.01, 566.01,  0.00000,  0.00000,  0.00000,  0.00000,1,1,   3.2,   1,1.0000,   0,1.0000,   0,1.0000,   0,1.0000
   10,    70,'1 ', 0.00580, 0.06727,0.02063, 324.83, 324.83, 324.83,  0.00000,  0.00000,  0.00000,  0.00000,1,1,  18.1,   1,1.0000,   0,1.0000,   0,1.0000,   0,1.0000
   11,   173,'1 ', 0.01667, 0.12408,0.03486, 237.35, 237.35, 237.35,  0.00000,  0.00000,  0.00000,  0.00000,1,1,  31.9,   1,1.0000,   0,1.0000,   0,1.0000,   0,1.0000
  188,    13,'1 ', 0.00011, 0.00195,0.02003,1045.73,1045.73,1045.73,  0.00000,  0.00000,  0.00000,  0.00000,1,1,   3.0,   1,1.0000,   0,1.0000,   0,1.0000,   0,1.0000
   13,   190,'1 ', 0.00085, 0.01791,0.26779,1060.07,1060.07,1060.07,  0.00000,  0.00000,  0.00000,  0.00000,1,1,  33.9,   1,1.0000,   0,1.0000,   0,1.0000,   0,1.0000
   14,    15,'1 ', 0.03611, 0.08904,0.14388, 178.87, 178.87, 178.87,  0.00000,  0.00000,  0.00000,  0.00000,1,1,  55.0,   1,1.0000,   0,1.0000,   0,1.0000,   0,1.0000
   14,   177,'1 ', 0.01882, 0.06776,0.11459, 229.46, 229.46, 229.46,  0.00000,  0.00000,  0.00000,  0.00000,1,1,  42.5,   1,1.0000,   0,1.0000,   0,1.0000,   0,1.0000
   15,    61,'1 ', 0.00413, 0.02750,0.05200, 353.36, 353.36, 353.36,  0.00000,  0.00000,  0.00000,  0.00000,1,1,  18.4,   1,1.0000,   0,1.0000,   0,1.0000,   0,1.0000
  184,    15,'1 ', 0.00343, 0.04204,0.08894, 541.39, 541.39, 541.39,  0.00000,  0.00000,  0.00000,  0.00000,1,1,  29.7,   1,1.0000,   0,1.0000,   0,1.0000,   0,1.0000
   16,   149,'1 ', 0.01423, 0.04695,0.01231, 137.68, 137.68, 137.68,  0.00000,  0.00000,  0.00000,  0.00000,1,1,  11.6,   1,1.0000,   0,1.0000,   0,1.0000,   0,1.0000
   17,    18,'1 ', 0.05670, 0.19450,0.04709, 137.68, 137.68, 137.68,  0.00000,  0.00000,  0.00000,  0.00000,1,1,  46.1,   1,1.0000,   0,1.0000,   0,1.0000,   0,1.0000
   17,   145,'1 ', 0.04673, 0.10452,0.02669, 107.32, 107.32, 107.32,  0.00000,  0.00000,  0.00000,  0.00000,1,1,  25.6,   1,1.0000,   0,1.0000,   0,1.0000,   0,1.0000
   19,    96,'1 ', 0.05510, 0.12952,0.02990, 107.32, 107.32, 107.32,  0.00000,  0.00000,  0.00000,  0.00000,1,1,  30.2,   1,1.0000,   0,1.0000,   0,1.0000,   0,1.0000
   19,   105,'1 ', 0.00053, 0.01276,0.00724, 522.03, 522.03, 522.03,  0.00000,  0.00000,  0.00000,  0.00000,1,1,   4.7,   1,1.0000,   0,1.0000,   0,1.0000,   0,1.0000
   19,   110,'1 ', 0.00509, 0.02371,0.00609, 173.53, 173.53, 173.53,  0.00000,  0.00000,  0.00000,  0.00000,1,1,   5.8,   1,1.0000,   0,1.0000,   0,1.0000,   0,1.0000
   19,   118,'1 ', 0.00064, 0.01345,0.00755, 474.70, 474.70, 474.70,  0.00000,  0.00000,  0.00000,  0.00000,1,1,   4.9,   1,1.0000,   0,1.0000,   0,1.0000,   0,1.0000
   19,   175,'1 ', 0.05620, 0.25162,0.07017, 173.53, 173.53, 173.53,  0.00000,  0.00000,  0.00000,  0.00000,1,1,  64.5,   1,1.0000,   0,1.0000,   0,1.0000,   0,1.0000
   21,   129,'1 ', 0.00698, 0.03501,0.01005, 187.39, 187.39, 187.39,  0.00000,  0.00000,  0.00000,  0.00000,1,1,   9.1,   1,1.0000,   0,1.0000,   0,1.0000,   0,1.0000
   21,   130,'1 ', 0.00738, 0.06070,0.01884, 261.01, 261.01, 261.01,  0.00000,  0.00000,  0.00000,  0.00000,1,1,  16.4,   1,1.0000,   0,1.0000,   0,1.0000,   0,1.0000
   22,    23,'1 ', 0.01398, 0.03448,0.05572, 178.87, 178.87, 178.87,  0.00000,  0.00000,  0.00000,  0.00000,1,1,  21.3,   1,1.0000,   0,1.0000,   0,1.0000,   0,1.0000
   23,    24,'1 ', 0.04301, 0.10605,0.17137, 178.87, 178.87, 178.87,  0.00000,  0.00000,  0.00000,  0.00000,1,1,  65.6,   1,1.0000,   0,1.0000,   0,1.0000,   0,1.0000
   23,    90,'1 ', 0.00690, 0.02037,0.03648, 206.75, 206.75, 206.75,  0.00000,  0.00000,  0.00000,  0.00000,1,1,  13.2,   1,1.0000,   0,1.0000,   0,1.0000,   0,1.0000
   23,    91,'1 ', 0.01279, 0.05439,0.09557, 262.53, 262.53, 262.53,  0.00000,  0.00000,  0.00000,  0.00000,1,1,  35.1,   1,1.0000,   0,1.0000,   0,1.0000,   0,1.0000
   24,   177,'1 ', 0.00208, 0.01428,0.02528, 353.36, 353.36, 353.36,  0.00000,  0.00000,  0.00000,  0.00000,1,1,   9.2,   1,1.0000,   0,1.0000,   0,1.0000,   0,1.0000
   25,   133,'1 ', 0.00613, 0.04868,0.09258, 395.58, 395.58, 395.58,  0.00000,  0.00000,  0.00000,  0.00000,1,1,  32.6,   1,1.0000,   0,1.0000,   0,1.0000,   0,1.0000
   25,   168,'1 ', 0.01816, 0.04527,0.07160, 178.87, 178.87, 178.87,  0.00000,  0.00000,  0.00000,  0.00000,1,1,  27.7,   1,1.0000,   0,1.0000,   0,1.0000,   0,1.0000
   26,    42,'1 ', 0.00714, 0.04949,0.43522, 530.03, 530.03, 530.03,  0.00000,  0.00000,  0.00000,  0.00000,1,1,  71.4,   1,1.0000,   0,1.0000,   0,1.0000,   0,1.0000
   26,    43,'1 ', 0.00133, 0.00911,0.08245, 530.03, 530.03, 530.03,  0.00000,  0.00000,  0.00000,  0.00000,1,1,  13.3,   1,1.0000,   0,1.0000,   0,1.0000,   0,1.0000
   26,   202,'1 ', 0.01045, 0.07245,0.63716, 530.03, 530.03, 530.03,  0.00000,  0.00000,  0.00000,  0.00000,1,1, 104.5,   1,1.0000,   0,1.0000,   0,1.0000,   0,1.0000
   27,   160,'1 ', 0.02217, 0.05468,0.08835, 178.87, 178.87, 178.87,  0.00000,  0.00000,  0.00000,  0.00000,1,1,  33.8,   1,1.0000,   0,1.0000,   0,1.0000,   0,1.0000
   28,    77,'1 ', 0.06656, 0.15647,0.03612, 107.32, 107.32, 107.32,  0.00000,  0.00000,  0.00000,  0.00000,1,1,  36.5,   1,1.0000,   0,1.0000,   0,1.0000,   0,1.0000
   28,    88,'1 ', 0.00116, 0.01860,0.00608, 418.29, 418.29, 418.29,  0.00000,  0.00000,  0.00000,  0.00000,1,1,   5.1,   1,1.0000,   0,1.0000,   0,1.0000,   0,1.0000
   29,    84,'1 ', 0.00955, 0.09168,0.02681, 283.00, 283.00, 283.00,  0.00000,  0.00000,  0.00000,  0.00000,1,1,  24.0,   1,1.0000,   0,1.0000,   0,1.0000,   0,1.0000
   39,    43,'1 ', 0.00577, 0.04003,0.35199, 530.03, 530.03, 530.03,  0.00000,  0.00000,  0.00000,  0.00000,1,1,  57.7,   1,1.0000,   0,1.0000,   0,1.0000,   0,1.0000
   40,    43,'1 ', 0.00360, 0.02314,0.23770, 530.03, 530.03, 530.03,  0.00000,  0.00000,  0.00000,  0.00000,1,1,  36.0,   1,1.0000,   0,1.0000,   0,1.0000,   0,1.0000
  202,    41,'1 ', 0.00271, 0.01880,0.16536, 530.03, 530.03, 530.03,  0.00000,  0.00000,  0.00000,  0.00000,1,1,  27.1,   1,1.0000,   0,1.0000,   0,1.0000,   0,1.0000
   42,   167,'1 ', 0.00687, 0.04934,0.40438, 530.03, 530.03, 530.03,  0.00000,  0.00000,  0.00000,  0.00000,1,1,  68.7,   1,1.0000,   0,1.0000,   0,1.0000,   0,1.0000
   44,    55,'1 ', 0.00742, 0.02703,0.04470, 229.46, 229.46, 229.46,  0.00000,  0.00000,  0.00000,  0.00000,1,1,  16.8,   1,1.0000,   0,1.0000,   0,1.0000,   0,1.0000
   45,    52,'1 ', 0.00089, 0.00836,0.07659, 652.53, 652.53, 652.53,  0.00000,  0.00000,  0.00000,  0.00000,1,1,  12.3,   1,1.0000,   0,1.0000,   0,1.0000,   0,1.0000
  206,    45,'1 ', 0.00042, 0.00286,0.02611, 530.03, 530.03, 530.03,  0.00000,  0.00000,  0.00000,  0.00000,1,1,   4.2,   1,1.0000,   0,1.0000,   0,1.0000,   0,1.0000
   45,   212,'1 ', 0.00103, 0.00976,0.08940, 652.53, 652.53, 652.53,  0.00000,  0.00000,  0.00000,  0.00000,1,1,  14.3,   1,1.0000,   0,1.0000,   0,1.0000,   0,1.0000
   46,    47,'1 ', 0.01683, 0.10628,0.02894, 212.01, 212.01, 212.01,  0.00000,  0.00000,  0.00000,  0.00000,1,1,  26.9,   1,1.0000,   0,1.0000,   0,1.0000,   0,1.0000
   47,    63,'1 ', 0.03810, 0.08957,0.02068, 107.32, 107.32, 107.32,  0.00000,  0.00000,  0.00000,  0.00000,1,1,  20.9,   1,1.0000,   0,1.0000,   0,1.0000,   0,1.0000
   48,   150,'1 ', 0.00352, 0.02444,0.21489, 530.03, 530.03, 530.03,  0.00000,  0.00000,  0.00000,  0.00000,1,1,  35.2,   1,1.0000,   0,1.0000,   0,1.0000,   0,1.0000
  182,    48,'1 ', 0.00342, 0.02370,0.20841, 530.03, 530.03, 530.03,  0.00000,  0.00000,  0.00000,  0.00000,1,1,  34.2,   1,1.0000,   0,1.0000,   0,1.0000,   0,1.0000
   49,    65,'1 ', 0.00180, 0.03771,0.02118, 474.70, 474.70, 474.70,  0.00000,  0.00000,  0.00000,  0.00000,1,1,  13.8,   1,1.0000,   0,1.0000,   0,1.0000,   0,1.0000
   50,    65,'1 ', 0.00526, 0.03751,0.01148, 237.35, 237.35, 237.35,  0.00000,  0.00000,  0.00000,  0.00000,1,1,  10.1,   1,1.0000,   0,1.0000,   0,1.0000,   0,1.0000
   51,    68,'1 ', 0.00406, 0.03734,0.01192, 283.00, 283.00, 283.00,  0.00000,  0.00000,  0.00000,  0.00000,1,1,  10.2,   1,1.0000,   0,1.0000,   0,1.0000,   0,1.0000
   51,    72,'1 ', 0.00071, 0.00719,0.00234, 304.04, 304.04, 304.04,  0.00000,  0.00000,  0.00000,  0.00000,1,1,   2.0,   1,1.0000,   0,1.0000,   0,1.0000,   0,1.0000
  183,    52,'1 ', 0.00205, 0.02164,0.20301, 707.51, 707.51, 707.51,  0.00000,  0.00000,  0.00000,  0.00000,1,1,  32.1,   1,1.0000,   0,1.0000,   0,1.0000,   0,1.0000
...